CM 2 Vertical Half-Wave Dipoles in free space 	
CM Spacing = 2xlambda
CM Lambda  = 0.3m
CM Total input power to both dipoles = 100.0 Watts (Verified from Nec2 output file)
CE
SY Freq=1e9
SY Lambda=3e8/Freq
SY FreqMHz=Freq/1e6
GW	1	11	-1*lambda	0	-0.25*lambda	-1*lambda	0	0.25*lambda	.0001
GW	2	11	1*lambda	0	-0.25*lambda	1*lambda	0	0.25*lambda	.0001
GE	0
GN	-1
EK
EX	0	1	6	0	110.4	0  
EX	0	2	6	0	110.4	0  
FR	0	0	0	0	FreqMHz	1
XQ	0
EN
